Representative_Reconfigurable_Test_Networks/selected_reconfigurable_networks/reconfigurable_case_2.m
function mpc = reconfigurable_case_2

% function mpc = ../matpowerfiles/LV_fg21
mpc.version = '2';
mpc.baseMVA = 1;
mpc.bus = [
	476	3	0.0	0.0	0.0	0.0	27	1	0	0.23	1	1.1	0.9;
	477	1	0.0	0.0	0.0	0.0	27	1	0	0.23	1	1.1	0.9;
	478	1	0.0	0.0	0.0	0.0	27	1	0	0.23	1	1.1	0.9;
	479	1	0.0007983294080380001	6.4465356115e-05	0.0	0.0	27	1	0	0.23	1	1.1	0.9;
	480	1	0.0	0.0	0.0	0.0	27	1	0	0.23	1	1.1	0.9;
	481	1	0.0	0.0	0.0	0.0	27	1	0	0.23	1	1.1	0.9;
	482	1	0.0	0.0	0.0	0.0	27	1	0	0.23	1	1.1	0.9;
	483	1	0.000899803457314	8.5368785872e-05	0.0	0.0	27	1	0	0.23	1	1.1	0.9;
	484	1	0.0	0.0	0.0	0.0	27	1	0	0.23	1	1.1	0.9;
	485	1	0.000230529675671	1.5226162819e-05	0.0	0.0	27	1	0	0.23	1	1.1	0.9;
	486	1	0.0	0.0	0.0	0.0	27	1	0	0.23	1	1.1	0.9;
	487	1	0.0	0.0	0.0	0.0	27	1	0	0.23	1	1.1	0.9;
	488	1	0.0	0.0	0.0	0.0	27	1	0	0.23	1	1.1	0.9;
	489	1	0.000129056161611	2.6303465551e-05	0.0	0.0	27	1	0	0.23	1	1.1	0.9;
	490	1	0.0	0.0	0.0	0.0	27	1	0	0.23	1	1.1	0.9;
	491	1	0.004620789573645	0.000426335034245	0.0	0.0	27	1	0	0.23	1	1.1	0.9;
	492	1	0.0	0.0	0.0	0.0	27	1	0	0.23	1	1.1	0.9;
	493	1	0.0	0.0	0.0	0.0	27	1	0	0.23	1	1.1	0.9;
	494	1	0.0	0.0	0.0	0.0	27	1	0	0.23	1	1.1	0.9;
	495	1	0.0	0.0	0.0	0.0	27	1	0	0.23	1	1.1	0.9;
	496	1	0.0	0.0	0.0	0.0	27	1	0	0.23	1	1.1	0.9;
	497	1	0.0	0.0	0.0	0.0	27	1	0	0.23	1	1.1	0.9;
	498	1	0.0	0.0	0.0	0.0	27	1	0	0.23	1	1.1	0.9;
	499	1	0.0	0.0	0.0	0.0	27	1	0	0.23	1	1.1	0.9;
	500	1	0.005904503386974001	0.000637873806834	0.0	0.0	27	1	0	0.23	1	1.1	0.9;
	501	1	0.0	0.0	0.0	0.0	27	1	0	0.23	1	1.1	0.9;
	502	1	0.005033037279385999	0.000477546377866	0.0	0.0	27	1	0	0.23	1	1.1	0.9;
	503	1	0.0	0.0	0.0	0.0	27	1	0	0.23	1	1.1	0.9;
	504	1	0.005257774002215001	0.000472882925656	0.0	0.0	27	1	0	0.23	1	1.1	0.9;
	505	1	0.0	0.0	0.0	0.0	27	1	0	0.23	1	1.1	0.9;
	506	1	0.0	0.0	0.0	0.0	27	1	0	0.23	1	1.1	0.9;
	507	1	0.001757805199439	0.000169407324959	0.0	0.0	27	1	0	0.23	1	1.1	0.9;
	508	1	0.0	0.0	0.0	0.0	27	1	0	0.23	1	1.1	0.9;
	509	1	0.0	0.0	0.0	0.0	27	1	0	0.23	1	1.1	0.9;
	510	1	0.0	0.0	0.0	0.0	27	1	0	0.23	1	1.1	0.9;
	511	1	0.000212922642426	2.628743757e-05	0.0	0.0	27	1	0	0.23	1	1.1	0.9;
	512	1	0.0	0.0	0.0	0.0	27	1	0	0.23	1	1.1	0.9;
	513	1	0.0	0.0	0.0	0.0	27	1	0	0.23	1	1.1	0.9;
	514	1	0.0	0.0	0.0	0.0	27	1	0	0.23	1	1.1	0.9;
	515	1	0.0	0.0	0.0	0.0	27	1	0	0.23	1	1.1	0.9;
	516	1	0.000983911452922	0.000115961927531	0.0	0.0	27	1	0	0.23	1	1.1	0.9;
	517	1	0.0	0.0	0.0	0.0	27	1	0	0.23	1	1.1	0.9;
	518	1	0.000182135963646	2.3600960753e-05	0.0	0.0	27	1	0	0.23	1	1.1	0.9;
	519	1	0.0	0.0	0.0	0.0	27	1	0	0.23	1	1.1	0.9;
	3335	3	0.0	0.0	0.0	0.0	222	1	0	0.23	1	1.1	0.9;
	3336	1	0.0	0.0	0.0	0.0	222	1	0	0.23	1	1.1	0.9;
	3337	1	0.0	0.0	0.0	0.0	222	1	0	0.23	1	1.1	0.9;
	3338	1	0.0	0.0	0.0	0.0	222	1	0	0.23	1	1.1	0.9;
	3339	1	0.0	0.0	0.0	0.0	222	1	0	0.23	1	1.1	0.9;
	3340	1	0.0	0.0	0.0	0.0	222	1	0	0.23	1	1.1	0.9;
	3341	1	0.007735715570811001	0.0007819573932529997	0.0	0.0	222	1	0	0.23	1	1.1	0.9;
	3342	1	0.0	0.0	0.0	0.0	222	1	0	0.23	1	1.1	0.9;
	3343	1	0.001094572017565	0.00013115678471	0.0	0.0	222	1	0	0.23	1	1.1	0.9;
	3344	1	0.0	0.0	0.0	0.0	222	1	0	0.23	1	1.1	0.9;
	3345	1	0.0	0.0	0.0	0.0	222	1	0	0.23	1	1.1	0.9;
	3346	1	0.0	0.0	0.0	0.0	222	1	0	0.23	1	1.1	0.9;
	3347	1	0.0	0.0	0.0	0.0	222	1	0	0.23	1	1.1	0.9;
	3348	1	0.0	0.0	0.0	0.0	222	1	0	0.23	1	1.1	0.9;
	3349	1	0.0	0.0	0.0	0.0	222	1	0	0.23	1	1.1	0.9;
	3350	1	0.0	0.0	0.0	0.0	222	1	0	0.23	1	1.1	0.9;
	3351	1	0.0	0.0	0.0	0.0	222	1	0	0.23	1	1.1	0.9;
	3352	1	0.0	0.0	0.0	0.0	222	1	0	0.23	1	1.1	0.9;
	3353	1	0.001058857411922	0.00013515089488	0.0	0.0	222	1	0	0.23	1	1.1	0.9;
	3354	1	0.0	0.0	0.0	0.0	222	1	0	0.23	1	1.1	0.9;
	3355	1	0.0	0.0	0.0	0.0	222	1	0	0.23	1	1.1	0.9;
	3356	1	0.003541635257679999	0.0003757146396549999	0.0	0.0	222	1	0	0.23	1	1.1	0.9;
	3357	1	0.0	0.0	0.0	0.0	222	1	0	0.23	1	1.1	0.9;
	3358	1	0.0	0.0	0.0	0.0	222	1	0	0.23	1	1.1	0.9;
	3359	1	0.0	0.0	0.0	0.0	222	1	0	0.23	1	1.1	0.9;
	3360	1	0.0	0.0	0.0	0.0	222	1	0	0.23	1	1.1	0.9;
	3361	1	0.004068857559693	0.000407762588074	0.0	0.0	222	1	0	0.23	1	1.1	0.9;
	3362	1	0.0	0.0	0.0	0.0	222	1	0	0.23	1	1.1	0.9;
	3363	1	0.002366307617575	0.000257141382505	0.0	0.0	222	1	0	0.23	1	1.1	0.9;
	3364	1	0.0	0.0	0.0	0.0	222	1	0	0.23	1	1.1	0.9;
	3365	1	0.002483889549584	0.000263151252782	0.0	0.0	222	1	0	0.23	1	1.1	0.9;
	3366	1	0.0	0.0	0.0	0.0	222	1	0	0.23	1	1.1	0.9;
	3367	1	0.0	0.0	0.0	0.0	222	1	0	0.23	1	1.1	0.9;
	3368	1	0.001249714909297	0.000123728915371	0.0	0.0	222	1	0	0.23	1	1.1	0.9;
	3369	1	0.0	0.0	0.0	0.0	222	1	0	0.23	1	1.1	0.9;
	3370	1	0.000782074980134	8.9632699778e-05	0.0	0.0	222	1	0	0.23	1	1.1	0.9;
];

mpc.gen = [
	476	0.0	0.0	Inf	-Inf	1	1	1	Inf	-Inf;
	3335	0.0	0.0	Inf	-Inf	1	1	1	Inf	-Inf;
];

mpc.gencost = [
	2	0	0	2	1	0;
	2	0	0	2	1	0;
];

mpc.branch = [
	476	477	0.18446210396975427	0.06790359168241966	0	0	0	0	0	0	1	-89.9	89.9;
	477	478	0.005368868620037807	0.0019763705103969754	0	0	0	0	0	0	1	-89.9	89.9;
	478	479	0.00021739130434782607	2.835538752362949e-05	0	0	0	0	0	0	1	-89.9	89.9;
	478	480	0.022610357277882794	0.008323251417769377	0	0	0	0	0	0	1	-89.9	89.9;
	480	481	0.026189603024574667	0.009640831758034027	0	0	0	0	0	0	1	-89.9	89.9;
	481	482	0.013094801512287334	0.0048204158790170135	0	0	0	0	0	0	1	-89.9	89.9;
	482	483	0.00021739130434782607	2.835538752362949e-05	0	0	0	0	0	0	1	-89.9	89.9;
	482	484	0.05674413988657845	0.020888468809073725	0	0	0	0	0	0	1	-89.9	89.9;
	484	485	0.00021739130434782607	2.835538752362949e-05	0	0	0	0	0	0	1	-89.9	89.9;
	484	486	0.12221814744801511	0.04499054820415879	0	0	0	0	0	0	1	-89.9	89.9;
	486	487	0.00021739130434782607	2.835538752362949e-05	0	0	0	0	0	0	1	-89.9	89.9;
	486	488	0.033435393194706994	0.01230812854442344	0	0	0	0	0	0	1	-89.9	89.9;
	488	489	0.00021739130434782607	2.835538752362949e-05	0	0	0	0	0	0	1	-89.9	89.9;
	488	490	0.061109073724007555	0.022495274102079396	0	0	0	0	0	0	1	-89.9	89.9;
	490	491	0.00021739130434782607	2.835538752362949e-05	0	0	0	0	0	0	1	-89.9	89.9;
	490	492	0.09716342722117201	0.03576748582230624	0	0	0	0	0	0	1	-89.9	89.9;
	492	493	0.1134882797731569	0.04177693761814745	0	0	0	0	0	0	1	-89.9	89.9;
	493	494	0.021824669187145557	0.008034026465028356	0	0	0	0	0	0	1	-89.9	89.9;
	494	495	0.108555904536862	0.03996124763705104	0	0	0	0	0	0	1	-89.9	89.9;
	495	496	0.008296786389413988	0.0029631379962192813	0	0	0	0	0	0	1	-89.9	89.9;
	496	497	0.004168241965973534	0.001488657844990548	0	0	0	0	0	0	1	-89.9	89.9;
	496	498	0.008376181474480151	0.002991493383742911	0	0	0	0	0	0	1	-89.9	89.9;
	498	499	0.010122873345935729	0.0038563327032136107	0	0	0	0	0	0	1	-89.9	89.9;
	499	500	0.00021739130434782607	2.835538752362949e-05	0	0	0	0	0	0	1	-89.9	89.9;
	494	501	0.027121965973534973	0.006729678638941398	0	0	0	0	0	0	1	-89.9	89.9;
	501	502	0.00021739130434782607	2.835538752362949e-05	0	0	0	0	0	0	1	-89.9	89.9;
	494	503	0.027121965973534973	0.006729678638941398	0	0	0	0	0	0	1	-89.9	89.9;
	503	504	0.00021739130434782607	2.835538752362949e-05	0	0	0	0	0	0	1	-89.9	89.9;
	481	505	0.052379206049149335	0.019281663516068054	0	0	0	0	0	0	1	-89.9	89.9;
	505	506	0.078568809073724	0.028922495274102077	0	0	0	0	0	0	1	-89.9	89.9;
	506	507	0.00021739130434782607	2.835538752362949e-05	0	0	0	0	0	0	1	-89.9	89.9;
	506	508	0.017416086011342154	0.0064111531190926265	0	0	0	0	0	0	1	-89.9	89.9;
	508	509	0.052379206049149335	0.019281663516068054	0	0	0	0	0	0	1	-89.9	89.9;
	509	510	0.021824669187145557	0.008034026465028356	0	0	0	0	0	0	1	-89.9	89.9;
	510	511	0.00021739130434782607	2.835538752362949e-05	0	0	0	0	0	0	1	-89.9	89.9;
	510	512	0.026189603024574667	0.009640831758034027	0	0	0	0	0	0	1	-89.9	89.9;
	512	513	0.00021739130434782607	2.835538752362949e-05	0	0	0	0	0	0	1	-89.9	89.9;
	512	514	0.026189603024574667	0.009640831758034027	0	0	0	0	0	0	1	-89.9	89.9;
	508	515	0.052379206049149335	0.019281663516068054	0	0	0	0	0	0	1	-89.9	89.9;
	515	516	0.00021739130434782607	2.835538752362949e-05	0	0	0	0	0	0	1	-89.9	89.9;
	515	517	0.013094801512287334	0.0048204158790170135	0	0	0	0	0	0	1	-89.9	89.9;
	517	518	0.00021739130434782607	2.835538752362949e-05	0	0	0	0	0	0	1	-89.9	89.9;
	505	519	0.4854442344045369	0.020415879017013232	0	0	0	0	0	0	1	-89.9	89.9;
	3335	3336	0.021824669187145557	0.008034026465028356	0	0	0	0	0	0	1	-89.9	89.9;
	3336	3337	0.13531294896030244	0.049810964083175806	0	0	0	0	0	0	1	-89.9	89.9;
	3337	3338	0.09602854442344044	0.03534971644612476	0	0	0	0	0	0	1	-89.9	89.9;
	3338	3339	0.09602854442344044	0.03534971644612476	0	0	0	0	0	0	1	-89.9	89.9;
	3339	3340	0.027121965973534973	0.006729678638941398	0	0	0	0	0	0	1	-89.9	89.9;
	3340	3341	0.00021739130434782607	2.835538752362949e-05	0	0	0	0	0	0	1	-89.9	89.9;
	3339	3342	0.047463440453686195	0.011776937618147448	0	0	0	0	0	0	1	-89.9	89.9;
	3342	3343	0.00021739130434782607	2.835538752362949e-05	0	0	0	0	0	0	1	-89.9	89.9;
	3339	3344	0.078568809073724	0.028922495274102077	0	0	0	0	0	0	1	-89.9	89.9;
	3344	3345	0.061109073724007555	0.022495274102079396	0	0	0	0	0	0	1	-89.9	89.9;
	3345	3346	0.039284404536862	0.014461247637051039	0	0	0	0	0	0	1	-89.9	89.9;
	3346	3347	0.008729867674858222	0.0032136105860113423	0	0	0	0	0	0	1	-89.9	89.9;
	3347	3348	0.1266540642722117	0.009168241965973534	0	0	0	0	0	0	1	-89.9	89.9;
	3348	3349	0.00021739130434782607	2.835538752362949e-05	0	0	0	0	0	0	1	-89.9	89.9;
	3348	3350	0.22797731568998109	0.016502835538752363	0	0	0	0	0	0	1	-89.9	89.9;
	3350	3351	0.00021739130434782607	2.835538752362949e-05	0	0	0	0	0	0	1	-89.9	89.9;
	3346	3352	0.027121965973534973	0.006729678638941398	0	0	0	0	0	0	1	-89.9	89.9;
	3352	3353	0.00021739130434782607	2.835538752362949e-05	0	0	0	0	0	0	1	-89.9	89.9;
	3346	3354	0.10475841209829867	0.03856332703213611	0	0	0	0	0	0	1	-89.9	89.9;
	3354	3355	0.02034147448015123	0.0050472589792060485	0	0	0	0	0	0	1	-89.9	89.9;
	3355	3356	0.00021739130434782607	2.835538752362949e-05	0	0	0	0	0	0	1	-89.9	89.9;
	3354	3357	0.06259315122873346	0.023041587901701327	0	0	0	0	0	0	1	-89.9	89.9;
	3345	3358	0.027121965973534973	0.006729678638941398	0	0	0	0	0	0	1	-89.9	89.9;
	3358	3359	0.00021739130434782607	2.835538752362949e-05	0	0	0	0	0	0	1	-89.9	89.9;
	3345	3360	0.026189603024574667	0.009640831758034027	0	0	0	0	0	0	1	-89.9	89.9;
	3360	3361	0.00021739130434782607	2.835538752362949e-05	0	0	0	0	0	0	1	-89.9	89.9;
	3338	3362	0.02034147448015123	0.0050472589792060485	0	0	0	0	0	0	1	-89.9	89.9;
	3362	3363	0.00021739130434782607	2.835538752362949e-05	0	0	0	0	0	0	1	-89.9	89.9;
	3338	3364	0.02034147448015123	0.0050472589792060485	0	0	0	0	0	0	1	-89.9	89.9;
	3364	3365	0.00021739130434782607	2.835538752362949e-05	0	0	0	0	0	0	1	-89.9	89.9;
	3337	3366	0.2637729517958412	0.0970992438563327	0	0	0	0	0	0	1	-89.9	89.9;
	3366	3367	0.02239211058601134	0.008242911153119094	0	0	0	0	0	0	1	-89.9	89.9;
	3367	3368	0.00021739130434782607	2.835538752362949e-05	0	0	0	0	0	0	1	-89.9	89.9;
	3366	3369	0.07212134347826087	0.0093351606805293	0	0	0	0	0	0	1	-89.9	89.9;
	3369	3370	0.00021739130434782607	2.835538752362949e-05	0	0	0	0	0	0	1	-89.9	89.9;
	497	3357	0.0001890359168241966	1.8903591682419658e-05	0	0	0	0	0	0	1	-89.9	89.9;
];

% adds current ratings, is_switch boolean, and default switch state to the branch matrix
%column_names%	c_rating_a	is_switch	z_branch_start	branch_id
mpc.branch_extensions = [
	0.07015	1	1	449;
	0.07015	0	1	450;
	0.0276	0	1	451;
	0.07015	0	1	452;
	0.07015	0	1	453;
	0.07015	0	1	454;
	0.0276	0	1	455;
	0.07015	0	1	456;
	0.0276	0	1	457;
	0.07015	0	1	458;
	0.0276	0	1	459;
	0.07015	0	1	460;
	0.0276	0	1	461;
	0.07015	0	1	462;
	0.0276	0	1	463;
	0.07015	0	1	464;
	0.07015	0	1	465;
	0.07015	0	1	466;
	0.07015	1	1	467;
	0.046000000000000006	0	1	468;
	0.046000000000000006	0	1	469;
	0.046000000000000006	0	1	470;
	0.046000000000000006	1	1	471;
	0.0276	0	1	472;
	0.0529	0	1	473;
	0.0276	0	1	474;
	0.0529	0	1	475;
	0.0276	0	1	476;
	0.07015	0	1	477;
	0.07015	0	1	478;
	0.0276	0	1	479;
	0.07015	0	1	480;
	0.07015	0	1	481;
	0.07015	0	1	482;
	0.0276	0	1	483;
	0.07015	0	1	484;
	0.0276	0	1	485;
	0.07015	0	1	486;
	0.07015	0	1	487;
	0.0276	0	1	488;
	0.07015	0	1	489;
	0.0276	0	1	490;
	0.01725	0	1	491;
	0.07015	1	1	3113;
	0.07015	0	1	3114;
	0.07015	0	1	3115;
	0.07015	0	1	3116;
	0.0529	0	1	3117;
	0.0276	0	1	3118;
	0.0529	0	1	3119;
	0.0276	0	1	3120;
	0.07015	0	1	3121;
	0.07015	0	1	3122;
	0.07015	0	1	3123;
	0.07015	0	1	3124;
	0.023000000000000003	0	1	3125;
	0.0276	0	1	3126;
	0.023000000000000003	0	1	3127;
	0.0276	0	1	3128;
	0.0529	0	1	3129;
	0.0276	0	1	3130;
	0.07015	0	1	3131;
	0.0529	0	1	3132;
	0.0276	0	1	3133;
	0.07015	0	1	3134;
	0.0529	0	1	3135;
	0.0276	0	1	3136;
	0.07015	0	1	3137;
	0.0276	0	1	3138;
	0.0529	0	1	3139;
	0.0276	0	1	3140;
	0.0529	0	1	3141;
	0.0276	0	1	3142;
	0.07015	0	1	3143;
	0.07015	0	1	3144;
	0.0276	0	1	3145;
	0.0345	0	1	3146;
	0.0276	0	1	3147;
	2.3000000000000003	1	0	3590;
];